 1000.00      300.00      14.00
   250.00     300.45      14.00       2.00       0.00
   750.00     301.25      14.00       2.00       0.00
  1250.00     302.47      13.50       2.00       0.00
  1750.00     303.93      11.10       2.00       0.00
  2250.00     305.31       9.06       2.00       0.00
  2750.00     306.81       7.36       2.00       0.00
  3250.00     308.46       5.95       2.00       0.00
  3750.00     310.03       4.78       2.00       0.00
  4250.00     311.74       3.82       2.00       0.00
  4750.00     313.48       3.01       2.00       0.00
  5250.00     315.24       2.36       2.00       0.00
  5750.00     317.18       1.80       2.00       0.00
  6250.00     319.02       1.41       2.00       0.00
  6750.00     320.88       1.07       2.00       0.00
  7250.00     322.80       0.80       2.00       0.00
  7750.00     324.87       0.60       2.00       0.00
  8250.00     326.86       0.43       2.00       0.00
  8750.00     328.89       0.32       2.00       0.00
  9250.00     330.39       0.24       2.00       0.00
  9750.00     332.80       0.17       2.00       0.00
 10250.00     335.23       0.10       2.00       0.00
 10750.00     337.31       0.08       2.00       0.00
 11250.00     339.55       0.05       2.00       0.00
 11750.00     342.82       0.03       2.00       0.00
 12250.00     349.88       0.04       2.00       0.00
 12750.00     357.34       0.04       2.00       0.00
 13250.00     364.91       0.04       2.00       0.00
 13750.00     373.22       0.04       2.00       0.00
 14250.00     381.67       0.04       2.00       0.00
 14750.00     390.29       0.04       2.00       0.00
 15250.00     398.91       0.04       2.00       0.00
 15750.00     407.53       0.04       2.00       0.00
 16250.00     416.15       0.04       2.00       0.00
 16750.00     424.77       0.04       2.00       0.00
 17250.00     433.39       0.04       2.00       0.00
 17750.00     442.01       0.04       2.00       0.00
 18250.00     450.63       0.04       2.00       0.00
 18750.00     459.25       0.04       2.00       0.00
 19250.00     467.87       0.04       2.00       0.00
 19750.00     476.49       0.04       2.00       0.00
 20250.00     485.11       0.04       2.00       0.00
 20750.00     493.73       0.04       2.00       0.00
 21250.00     502.35       0.04       2.00       0.00
 21750.00     510.97       0.04       2.00       0.00
 22250.00     519.59       0.04       2.00       0.00
 22750.00     528.21       0.04       2.00       0.00

